* NGSPICE file created from pes_3bit_rc.ext - technology: sky130A

* Black-box entry subcircuit for sky130_fd_sc_hd__decap_6 abstract view
.subckt sky130_fd_sc_hd__decap_6 VGND VNB VPB VPWR
.ends

* Black-box entry subcircuit for sky130_ef_sc_hd__decap_12 abstract view
.subckt sky130_ef_sc_hd__decap_12 VGND VNB VPB VPWR
.ends

* Black-box entry subcircuit for sky130_fd_sc_hd__fill_1 abstract view
.subckt sky130_fd_sc_hd__fill_1 VGND VNB VPB VPWR
.ends

* Black-box entry subcircuit for sky130_fd_sc_hd__tapvpwrvgnd_1 abstract view
.subckt sky130_fd_sc_hd__tapvpwrvgnd_1 VGND VPWR
.ends

* Black-box entry subcircuit for sky130_fd_sc_hd__decap_4 abstract view
.subckt sky130_fd_sc_hd__decap_4 VGND VNB VPB VPWR
.ends

* Black-box entry subcircuit for sky130_fd_sc_hd__fill_2 abstract view
.subckt sky130_fd_sc_hd__fill_2 VGND VNB VPB VPWR
.ends

* Black-box entry subcircuit for sky130_fd_sc_hd__decap_3 abstract view
.subckt sky130_fd_sc_hd__decap_3 VGND VNB VPB VPWR
.ends

* Black-box entry subcircuit for sky130_fd_sc_hd__decap_8 abstract view
.subckt sky130_fd_sc_hd__decap_8 VGND VNB VPB VPWR
.ends

* Black-box entry subcircuit for sky130_fd_sc_hd__dfrtp_4 abstract view
.subckt sky130_fd_sc_hd__dfrtp_4 CLK D RESET_B VGND VNB VPB VPWR Q
.ends

* Black-box entry subcircuit for sky130_fd_sc_hd__clkbuf_16 abstract view
.subckt sky130_fd_sc_hd__clkbuf_16 A VGND VNB VPB VPWR X
.ends

* Black-box entry subcircuit for sky130_fd_sc_hd__inv_2 abstract view
.subckt sky130_fd_sc_hd__inv_2 A VGND VNB VPB VPWR Y
.ends

* Black-box entry subcircuit for sky130_fd_sc_hd__clkbuf_4 abstract view
.subckt sky130_fd_sc_hd__clkbuf_4 A VGND VNB VPB VPWR X
.ends

* Black-box entry subcircuit for sky130_fd_sc_hd__dfstp_1 abstract view
.subckt sky130_fd_sc_hd__dfstp_1 CLK D SET_B VGND VNB VPB VPWR Q
.ends

* Black-box entry subcircuit for sky130_fd_sc_hd__dlygate4sd3_1 abstract view
.subckt sky130_fd_sc_hd__dlygate4sd3_1 A VGND VNB VPB VPWR X
.ends

* Black-box entry subcircuit for sky130_fd_sc_hd__dfrtp_2 abstract view
.subckt sky130_fd_sc_hd__dfrtp_2 CLK D RESET_B VGND VNB VPB VPWR Q
.ends

* Black-box entry subcircuit for sky130_fd_sc_hd__buf_2 abstract view
.subckt sky130_fd_sc_hd__buf_2 A VGND VNB VPB VPWR X
.ends

.subckt pes_3bit_rc VGND VPWR clk count[0] count[1] count[2] ori
XFILLER_0_94_77 VGND VGND VPWR VPWR sky130_fd_sc_hd__decap_6
XFILLER_0_27_93 VGND VGND VPWR VPWR sky130_ef_sc_hd__decap_12
XFILLER_0_167_809 VGND VGND VPWR VPWR sky130_ef_sc_hd__decap_12
XFILLER_0_89_461 VGND VGND VPWR VPWR sky130_ef_sc_hd__decap_12
XFILLER_0_76_133 VGND VGND VPWR VPWR sky130_fd_sc_hd__decap_6
XFILLER_0_159_393 VGND VGND VPWR VPWR sky130_ef_sc_hd__decap_12
XFILLER_0_134_83 VGND VGND VPWR VPWR sky130_fd_sc_hd__fill_1
XFILLER_0_76_177 VGND VGND VPWR VPWR sky130_ef_sc_hd__decap_12
XFILLER_0_58_881 VGND VGND VPWR VPWR sky130_ef_sc_hd__decap_12
XFILLER_0_18_701 VGND VGND VPWR VPWR sky130_ef_sc_hd__decap_12
XFILLER_0_43_81 VGND VGND VPWR VPWR sky130_ef_sc_hd__decap_12
XFILLER_0_92_637 VGND VGND VPWR VPWR sky130_fd_sc_hd__decap_6
XFILLER_0_91_125 VGND VGND VPWR VPWR sky130_ef_sc_hd__decap_12
XFILLER_0_57_391 VGND VGND VPWR VPWR sky130_fd_sc_hd__fill_1
XFILLER_0_162_525 VGND VGND VPWR VPWR sky130_fd_sc_hd__decap_6
XFILLER_0_119_279 VGND VGND VPWR VPWR sky130_fd_sc_hd__fill_1
XFILLER_0_91_169 VGND VGND VPWR VPWR sky130_ef_sc_hd__decap_12
XFILLER_0_45_553 VGND VGND VPWR VPWR sky130_fd_sc_hd__decap_6
XFILLER_0_162_569 VGND VGND VPWR VPWR sky130_ef_sc_hd__decap_12
XFILLER_0_115_441 VGND VGND VPWR VPWR sky130_fd_sc_hd__decap_6
XFILLER_0_73_895 VGND VGND VPWR VPWR sky130_fd_sc_hd__fill_1
XFILLER_0_60_501 VGND VGND VPWR VPWR sky130_ef_sc_hd__decap_12
XFILLER_0_45_597 VGND VGND VPWR VPWR sky130_ef_sc_hd__decap_12
XFILLER_0_143_783 VGND VGND VPWR VPWR sky130_fd_sc_hd__fill_1
XFILLER_0_115_485 VGND VGND VPWR VPWR sky130_ef_sc_hd__decap_12
XFILLER_0_60_545 VGND VGND VPWR VPWR sky130_ef_sc_hd__decap_12
XFILLER_0_131_945 VGND VGND VPWR VPWR sky130_fd_sc_hd__decap_6
XFILLER_0_130_433 VGND VGND VPWR VPWR sky130_ef_sc_hd__decap_12
XFILLER_0_60_589 VGND VGND VPWR VPWR sky130_ef_sc_hd__decap_12
XFILLER_0_13_461 VGND VGND VPWR VPWR sky130_ef_sc_hd__decap_12
XFILLER_0_14_973 VGND VGND VPWR VPWR sky130_fd_sc_hd__decap_6
XFILLER_0_131_989 VGND VGND VPWR VPWR sky130_ef_sc_hd__decap_12
XFILLER_0_130_477 VGND VGND VPWR VPWR sky130_ef_sc_hd__decap_12
XFILLER_0_7_81 VGND VGND VPWR VPWR sky130_ef_sc_hd__decap_12
XFILLER_0_99_1033 VGND VGND VPWR VPWR sky130_ef_sc_hd__decap_12
XTAP_3213 VGND VPWR sky130_fd_sc_hd__tapvpwrvgnd_1
XTAP_3202 VGND VPWR sky130_fd_sc_hd__tapvpwrvgnd_1
XFILLER_0_99_225 VGND VGND VPWR VPWR sky130_ef_sc_hd__decap_12
XFILLER_0_169_113 VGND VGND VPWR VPWR sky130_ef_sc_hd__decap_12
XTAP_3246 VGND VPWR sky130_fd_sc_hd__tapvpwrvgnd_1
XTAP_3235 VGND VPWR sky130_fd_sc_hd__tapvpwrvgnd_1
XTAP_3224 VGND VPWR sky130_fd_sc_hd__tapvpwrvgnd_1
XTAP_2501 VGND VPWR sky130_fd_sc_hd__tapvpwrvgnd_1
XTAP_3279 VGND VPWR sky130_fd_sc_hd__tapvpwrvgnd_1
XTAP_3268 VGND VPWR sky130_fd_sc_hd__tapvpwrvgnd_1
XTAP_3257 VGND VPWR sky130_fd_sc_hd__tapvpwrvgnd_1
XTAP_2545 VGND VPWR sky130_fd_sc_hd__tapvpwrvgnd_1
XTAP_2534 VGND VPWR sky130_fd_sc_hd__tapvpwrvgnd_1
XTAP_2523 VGND VPWR sky130_fd_sc_hd__tapvpwrvgnd_1
XTAP_2512 VGND VPWR sky130_fd_sc_hd__tapvpwrvgnd_1
XTAP_1800 VGND VPWR sky130_fd_sc_hd__tapvpwrvgnd_1
XFILLER_0_68_601 VGND VGND VPWR VPWR sky130_ef_sc_hd__decap_12
XTAP_2567 VGND VPWR sky130_fd_sc_hd__tapvpwrvgnd_1
XTAP_2578 VGND VPWR sky130_fd_sc_hd__tapvpwrvgnd_1
XTAP_2556 VGND VPWR sky130_fd_sc_hd__tapvpwrvgnd_1
XTAP_1833 VGND VPWR sky130_fd_sc_hd__tapvpwrvgnd_1
XTAP_1822 VGND VPWR sky130_fd_sc_hd__tapvpwrvgnd_1
XTAP_1811 VGND VPWR sky130_fd_sc_hd__tapvpwrvgnd_1
XFILLER_0_68_645 VGND VGND VPWR VPWR sky130_ef_sc_hd__decap_12
XFILLER_0_67_111 VGND VGND VPWR VPWR sky130_fd_sc_hd__fill_1
XFILLER_0_138_533 VGND VGND VPWR VPWR sky130_ef_sc_hd__decap_12
XTAP_2589 VGND VPWR sky130_fd_sc_hd__tapvpwrvgnd_1
XFILLER_0_83_615 VGND VGND VPWR VPWR sky130_fd_sc_hd__fill_1
XTAP_1866 VGND VPWR sky130_fd_sc_hd__tapvpwrvgnd_1
XTAP_1844 VGND VPWR sky130_fd_sc_hd__tapvpwrvgnd_1
XTAP_1855 VGND VPWR sky130_fd_sc_hd__tapvpwrvgnd_1
XFILLER_0_55_317 VGND VGND VPWR VPWR sky130_ef_sc_hd__decap_12
XFILLER_0_153_503 VGND VGND VPWR VPWR sky130_fd_sc_hd__fill_1
XFILLER_0_95_497 VGND VGND VPWR VPWR sky130_fd_sc_hd__decap_6
XTAP_1899 VGND VPWR sky130_fd_sc_hd__tapvpwrvgnd_1
XTAP_1888 VGND VPWR sky130_fd_sc_hd__tapvpwrvgnd_1
XTAP_1877 VGND VPWR sky130_fd_sc_hd__tapvpwrvgnd_1
XFILLER_0_165_385 VGND VGND VPWR VPWR sky130_fd_sc_hd__decap_6
XFILLER_0_125_205 VGND VGND VPWR VPWR sky130_ef_sc_hd__decap_12
XFILLER_0_70_309 VGND VGND VPWR VPWR sky130_ef_sc_hd__decap_12
XFILLER_0_36_531 VGND VGND VPWR VPWR sky130_fd_sc_hd__fill_1
XFILLER_0_141_709 VGND VGND VPWR VPWR sky130_ef_sc_hd__decap_12
XFILLER_0_125_249 VGND VGND VPWR VPWR sky130_ef_sc_hd__decap_12
XFILLER_0_107_953 VGND VGND VPWR VPWR sky130_ef_sc_hd__decap_12
XFILLER_0_63_361 VGND VGND VPWR VPWR sky130_ef_sc_hd__decap_12
XFILLER_0_3_609 VGND VGND VPWR VPWR sky130_fd_sc_hd__decap_6
XFILLER_0_24_737 VGND VGND VPWR VPWR sky130_ef_sc_hd__decap_12
XFILLER_0_122_923 VGND VGND VPWR VPWR sky130_fd_sc_hd__fill_1
XFILLER_0_23_225 VGND VGND VPWR VPWR sky130_ef_sc_hd__decap_12
XFILLER_0_133_293 VGND VGND VPWR VPWR sky130_ef_sc_hd__decap_12
XFILLER_0_107_1033 VGND VGND VPWR VPWR sky130_ef_sc_hd__decap_12
XFILLER_0_48_15 VGND VGND VPWR VPWR sky130_ef_sc_hd__decap_12
XFILLER_0_32_781 VGND VGND VPWR VPWR sky130_ef_sc_hd__decap_12
XFILLER_0_43_1021 VGND VGND VPWR VPWR sky130_ef_sc_hd__decap_12
XFILLER_0_139_39 VGND VGND VPWR VPWR sky130_ef_sc_hd__decap_12
XFILLER_0_155_27 VGND VGND VPWR VPWR sky130_ef_sc_hd__decap_12
XFILLER_0_3_39 VGND VGND VPWR VPWR sky130_ef_sc_hd__decap_12
XFILLER_0_149_809 VGND VGND VPWR VPWR sky130_ef_sc_hd__decap_12
XFILLER_0_87_921 VGND VGND VPWR VPWR sky130_ef_sc_hd__decap_12
XFILLER_0_171_15 VGND VGND VPWR VPWR sky130_ef_sc_hd__decap_12
XFILLER_0_147_3 VGND VGND VPWR VPWR sky130_ef_sc_hd__decap_12
XFILLER_0_114_1037 VGND VGND VPWR VPWR sky130_ef_sc_hd__decap_12
XFILLER_0_87_965 VGND VGND VPWR VPWR sky130_ef_sc_hd__decap_12
XFILLER_0_58_133 VGND VGND VPWR VPWR sky130_fd_sc_hd__decap_6
XFILLER_0_157_853 VGND VGND VPWR VPWR sky130_ef_sc_hd__decap_12
XFILLER_0_86_475 VGND VGND VPWR VPWR sky130_fd_sc_hd__fill_1
XFILLER_0_156_363 VGND VGND VPWR VPWR sky130_fd_sc_hd__fill_1
XFILLER_0_104_53 VGND VGND VPWR VPWR sky130_ef_sc_hd__decap_12
XFILLER_0_74_637 VGND VGND VPWR VPWR sky130_fd_sc_hd__decap_6
XFILLER_0_73_125 VGND VGND VPWR VPWR sky130_ef_sc_hd__decap_12
XFILLER_0_58_177 VGND VGND VPWR VPWR sky130_ef_sc_hd__decap_12
XFILLER_0_11_1009 VGND VGND VPWR VPWR sky130_ef_sc_hd__decap_12
XFILLER_0_13_51 VGND VGND VPWR VPWR sky130_fd_sc_hd__decap_4
XFILLER_0_157_897 VGND VGND VPWR VPWR sky130_ef_sc_hd__decap_12
XFILLER_0_144_525 VGND VGND VPWR VPWR sky130_fd_sc_hd__decap_6
XFILLER_0_104_97 VGND VGND VPWR VPWR sky130_ef_sc_hd__decap_12
XFILLER_0_73_169 VGND VGND VPWR VPWR sky130_ef_sc_hd__decap_12
XFILLER_0_27_553 VGND VGND VPWR VPWR sky130_fd_sc_hd__decap_6
XFILLER_0_39_391 VGND VGND VPWR VPWR sky130_fd_sc_hd__fill_1
XFILLER_0_172_867 VGND VGND VPWR VPWR sky130_fd_sc_hd__fill_1
XFILLER_0_144_569 VGND VGND VPWR VPWR sky130_ef_sc_hd__decap_12
XFILLER_0_82_681 VGND VGND VPWR VPWR sky130_ef_sc_hd__decap_12
XFILLER_0_55_895 VGND VGND VPWR VPWR sky130_fd_sc_hd__fill_1
XFILLER_0_6_469 VGND VGND VPWR VPWR sky130_fd_sc_hd__decap_6
XFILLER_0_27_597 VGND VGND VPWR VPWR sky130_ef_sc_hd__decap_12
XFILLER_0_42_501 VGND VGND VPWR VPWR sky130_ef_sc_hd__decap_12
XFILLER_0_125_783 VGND VGND VPWR VPWR sky130_fd_sc_hd__fill_1
XFILLER_0_120_41 VGND VGND VPWR VPWR sky130_ef_sc_hd__decap_12
XFILLER_0_89_55 VGND VGND VPWR VPWR sky130_fd_sc_hd__fill_1
XFILLER_0_42_545 VGND VGND VPWR VPWR sky130_ef_sc_hd__decap_12
XFILLER_0_113_945 VGND VGND VPWR VPWR sky130_fd_sc_hd__decap_6
XFILLER_0_112_433 VGND VGND VPWR VPWR sky130_ef_sc_hd__decap_12
XFILLER_0_42_589 VGND VGND VPWR VPWR sky130_ef_sc_hd__decap_12
XFILLER_0_160_1035 VGND VGND VPWR VPWR sky130_fd_sc_hd__fill_1
XFILLER_0_120_85 VGND VGND VPWR VPWR sky130_ef_sc_hd__decap_12
XFILLER_0_113_989 VGND VGND VPWR VPWR sky130_ef_sc_hd__decap_12
XFILLER_0_112_477 VGND VGND VPWR VPWR sky130_ef_sc_hd__decap_12
XFILLER_0_11_921 VGND VGND VPWR VPWR sky130_ef_sc_hd__decap_12
XFILLER_0_160_1057 VGND VGND VPWR VPWR sky130_fd_sc_hd__fill_2
XFILLER_0_11_965 VGND VGND VPWR VPWR sky130_ef_sc_hd__decap_12
XFILLER_0_10_475 VGND VGND VPWR VPWR sky130_fd_sc_hd__fill_1
XFILLER_0_97_729 VGND VGND VPWR VPWR sky130_ef_sc_hd__decap_12
XFILLER_0_167_617 VGND VGND VPWR VPWR sky130_ef_sc_hd__decap_12
XFILLER_0_145_93 VGND VGND VPWR VPWR sky130_ef_sc_hd__decap_12
XFILLER_0_49_111 VGND VGND VPWR VPWR sky130_fd_sc_hd__fill_1
XTAP_1118 VGND VPWR sky130_fd_sc_hd__tapvpwrvgnd_1
XTAP_1107 VGND VPWR sky130_fd_sc_hd__tapvpwrvgnd_1
XTAP_1129 VGND VPWR sky130_fd_sc_hd__tapvpwrvgnd_1
XFILLER_0_92_401 VGND VGND VPWR VPWR sky130_ef_sc_hd__decap_12
XFILLER_0_65_615 VGND VGND VPWR VPWR sky130_fd_sc_hd__fill_1
XFILLER_0_135_503 VGND VGND VPWR VPWR sky130_fd_sc_hd__fill_1
XFILLER_0_77_497 VGND VGND VPWR VPWR sky130_fd_sc_hd__decap_6
XFILLER_0_37_317 VGND VGND VPWR VPWR sky130_ef_sc_hd__decap_12
XFILLER_0_161_81 VGND VGND VPWR VPWR sky130_ef_sc_hd__decap_12
XFILLER_0_147_385 VGND VGND VPWR VPWR sky130_fd_sc_hd__decap_6
XFILLER_0_107_205 VGND VGND VPWR VPWR sky130_ef_sc_hd__decap_12
XFILLER_0_92_445 VGND VGND VPWR VPWR sky130_ef_sc_hd__decap_12
XFILLER_0_52_309 VGND VGND VPWR VPWR sky130_ef_sc_hd__decap_12
XFILLER_0_18_531 VGND VGND VPWR VPWR sky130_fd_sc_hd__fill_1
XFILLER_0_174_193 VGND VGND VPWR VPWR sky130_fd_sc_hd__decap_3
XFILLER_0_162_333 VGND VGND VPWR VPWR sky130_ef_sc_hd__decap_12
XFILLER_0_123_709 VGND VGND VPWR VPWR sky130_ef_sc_hd__decap_12
XFILLER_0_107_249 VGND VGND VPWR VPWR sky130_ef_sc_hd__decap_12
XFILLER_0_92_489 VGND VGND VPWR VPWR sky130_ef_sc_hd__decap_12
XFILLER_0_61_821 VGND VGND VPWR VPWR sky130_ef_sc_hd__decap_12
XFILLER_0_45_361 VGND VGND VPWR VPWR sky130_ef_sc_hd__decap_12
XFILLER_0_163_889 VGND VGND VPWR VPWR sky130_fd_sc_hd__decap_6
XFILLER_0_162_377 VGND VGND VPWR VPWR sky130_ef_sc_hd__decap_12
XFILLER_0_104_923 VGND VGND VPWR VPWR sky130_fd_sc_hd__fill_1
XFILLER_0_61_865 VGND VGND VPWR VPWR sky130_ef_sc_hd__decap_12
XFILLER_0_6_981 VGND VGND VPWR VPWR sky130_ef_sc_hd__decap_12
XFILLER_0_115_293 VGND VGND VPWR VPWR sky130_ef_sc_hd__decap_12
XFILLER_0_21_729 VGND VGND VPWR VPWR sky130_ef_sc_hd__decap_12
XFILLER_0_131_753 VGND VGND VPWR VPWR sky130_ef_sc_hd__decap_12
XFILLER_0_14_781 VGND VGND VPWR VPWR sky130_ef_sc_hd__decap_12
XFILLER_0_131_797 VGND VGND VPWR VPWR sky130_ef_sc_hd__decap_12
XFILLER_0_18_29 VGND VGND VPWR VPWR sky130_ef_sc_hd__decap_12
XTAP_3021 VGND VPWR sky130_fd_sc_hd__tapvpwrvgnd_1
XTAP_3010 VGND VPWR sky130_fd_sc_hd__tapvpwrvgnd_1
XTAP_3054 VGND VPWR sky130_fd_sc_hd__tapvpwrvgnd_1
XTAP_3043 VGND VPWR sky130_fd_sc_hd__tapvpwrvgnd_1
XTAP_3032 VGND VPWR sky130_fd_sc_hd__tapvpwrvgnd_1
XTAP_2320 VGND VPWR sky130_fd_sc_hd__tapvpwrvgnd_1
XFILLER_0_87_217 VGND VGND VPWR VPWR sky130_fd_sc_hd__decap_6
XFILLER_0_69_921 VGND VGND VPWR VPWR sky130_ef_sc_hd__decap_12
XFILLER_0_157_105 VGND VGND VPWR VPWR sky130_fd_sc_hd__decap_6
XTAP_3098 VGND VPWR sky130_fd_sc_hd__tapvpwrvgnd_1
XTAP_3087 VGND VPWR sky130_fd_sc_hd__tapvpwrvgnd_1
XTAP_3065 VGND VPWR sky130_fd_sc_hd__tapvpwrvgnd_1
XTAP_3076 VGND VPWR sky130_fd_sc_hd__tapvpwrvgnd_1
XTAP_2353 VGND VPWR sky130_fd_sc_hd__tapvpwrvgnd_1
XTAP_2342 VGND VPWR sky130_fd_sc_hd__tapvpwrvgnd_1
XTAP_2331 VGND VPWR sky130_fd_sc_hd__tapvpwrvgnd_1
XFILLER_0_69_965 VGND VGND VPWR VPWR sky130_ef_sc_hd__decap_12
XTAP_2386 VGND VPWR sky130_fd_sc_hd__tapvpwrvgnd_1
XTAP_2375 VGND VPWR sky130_fd_sc_hd__tapvpwrvgnd_1
XTAP_2364 VGND VPWR sky130_fd_sc_hd__tapvpwrvgnd_1
XTAP_1641 VGND VPWR sky130_fd_sc_hd__tapvpwrvgnd_1
XFILLER_0_68_475 VGND VGND VPWR VPWR sky130_fd_sc_hd__fill_1
XTAP_1630 VGND VPWR sky130_fd_sc_hd__tapvpwrvgnd_1
XFILLER_0_173_609 VGND VGND VPWR VPWR sky130_fd_sc_hd__decap_6
XFILLER_0_157_149 VGND VGND VPWR VPWR sky130_ef_sc_hd__decap_12
XFILLER_0_139_853 VGND VGND VPWR VPWR sky130_ef_sc_hd__decap_12
XTAP_2397 VGND VPWR sky130_fd_sc_hd__tapvpwrvgnd_1
XFILLER_0_95_261 VGND VGND VPWR VPWR sky130_ef_sc_hd__decap_12
XTAP_1685 VGND VPWR sky130_fd_sc_hd__tapvpwrvgnd_1
XTAP_1674 VGND VPWR sky130_fd_sc_hd__tapvpwrvgnd_1
XTAP_1663 VGND VPWR sky130_fd_sc_hd__tapvpwrvgnd_1
XTAP_1652 VGND VPWR sky130_fd_sc_hd__tapvpwrvgnd_1
XFILLER_0_56_637 VGND VGND VPWR VPWR sky130_fd_sc_hd__decap_6
XFILLER_0_55_125 VGND VGND VPWR VPWR sky130_ef_sc_hd__decap_12
XFILLER_0_139_897 VGND VGND VPWR VPWR sky130_ef_sc_hd__decap_12
XFILLER_0_138_363 VGND VGND VPWR VPWR sky130_fd_sc_hd__fill_1
XFILLER_0_126_525 VGND VGND VPWR VPWR sky130_fd_sc_hd__decap_6
XFILLER_0_84_979 VGND VGND VPWR VPWR sky130_fd_sc_hd__fill_1
XTAP_1696 VGND VPWR sky130_fd_sc_hd__tapvpwrvgnd_1
XFILLER_0_50_27 VGND VGND VPWR VPWR sky130_fd_sc_hd__fill_1
XFILLER_0_165_193 VGND VGND VPWR VPWR sky130_ef_sc_hd__decap_12
XFILLER_0_154_867 VGND VGND VPWR VPWR sky130_fd_sc_hd__fill_1
XFILLER_0_126_569 VGND VGND VPWR VPWR sky130_ef_sc_hd__decap_12
XFILLER_0_71_629 VGND VGND VPWR VPWR sky130_ef_sc_hd__decap_12
XFILLER_0_64_681 VGND VGND VPWR VPWR sky130_ef_sc_hd__decap_12
XFILLER_0_55_169 VGND VGND VPWR VPWR sky130_ef_sc_hd__decap_12
XFILLER_0_24_501 VGND VGND VPWR VPWR sky130_ef_sc_hd__decap_12
XFILLER_0_37_895 VGND VGND VPWR VPWR sky130_fd_sc_hd__fill_1
XFILLER_0_141_517 VGND VGND VPWR VPWR sky130_ef_sc_hd__decap_12
XFILLER_0_107_783 VGND VGND VPWR VPWR sky130_fd_sc_hd__fill_1
XFILLER_0_70_139 VGND VGND VPWR VPWR sky130_fd_sc_hd__fill_1
XFILLER_0_3_417 VGND VGND VPWR VPWR sky130_ef_sc_hd__decap_12
XFILLER_0_24_545 VGND VGND VPWR VPWR sky130_ef_sc_hd__decap_12
XFILLER_0_24_589 VGND VGND VPWR VPWR sky130_ef_sc_hd__decap_12
XFILLER_0_80_1029 VGND VGND VPWR VPWR sky130_fd_sc_hd__decap_6
XFILLER_0_11_217 VGND VGND VPWR VPWR sky130_fd_sc_hd__decap_6
XFILLER_0_110_937 VGND VGND VPWR VPWR sky130_ef_sc_hd__decap_12
XFILLER_0_59_69 VGND VGND VPWR VPWR sky130_ef_sc_hd__decap_12
XFILLER_0_166_15 VGND VGND VPWR VPWR sky130_ef_sc_hd__decap_12
XFILLER_0_75_57 VGND VGND VPWR VPWR sky130_ef_sc_hd__decap_12
XFILLER_0_79_729 VGND VGND VPWR VPWR sky130_ef_sc_hd__decap_12
XFILLER_0_149_617 VGND VGND VPWR VPWR sky130_ef_sc_hd__decap_12
XFILLER_0_47_615 VGND VGND VPWR VPWR sky130_fd_sc_hd__fill_1
XFILLER_0_74_401 VGND VGND VPWR VPWR sky130_ef_sc_hd__decap_12
XFILLER_0_59_497 VGND VGND VPWR VPWR sky130_fd_sc_hd__decap_6
XFILLER_0_19_317 VGND VGND VPWR VPWR sky130_ef_sc_hd__decap_12
XFILLER_0_24_83 VGND VGND VPWR VPWR sky130_fd_sc_hd__fill_1
XFILLER_0_129_385 VGND VGND VPWR VPWR sky130_fd_sc_hd__decap_6
XFILLER_0_117_503 VGND VGND VPWR VPWR sky130_fd_sc_hd__fill_1
XFILLER_0_90_905 VGND VGND VPWR VPWR sky130_ef_sc_hd__decap_12
XFILLER_0_89_1021 VGND VGND VPWR VPWR sky130_ef_sc_hd__decap_12
XFILLER_0_74_445 VGND VGND VPWR VPWR sky130_ef_sc_hd__decap_12
XFILLER_0_144_333 VGND VGND VPWR VPWR sky130_ef_sc_hd__decap_12
XFILLER_0_131_51 VGND VGND VPWR VPWR sky130_fd_sc_hd__decap_4
XFILLER_0_105_709 VGND VGND VPWR VPWR sky130_ef_sc_hd__decap_12
XFILLER_0_90_949 VGND VGND VPWR VPWR sky130_ef_sc_hd__decap_12
XFILLER_0_74_489 VGND VGND VPWR VPWR sky130_ef_sc_hd__decap_12
XFILLER_0_6_233 VGND VGND VPWR VPWR sky130_ef_sc_hd__decap_12
XFILLER_0_27_361 VGND VGND VPWR VPWR sky130_ef_sc_hd__decap_12
XFILLER_0_34_309 VGND VGND VPWR VPWR sky130_ef_sc_hd__decap_12
XFILLER_0_43_821 VGND VGND VPWR VPWR sky130_ef_sc_hd__decap_12
XFILLER_0_160_837 VGND VGND VPWR VPWR sky130_ef_sc_hd__decap_12
XFILLER_0_145_889 VGND VGND VPWR VPWR sky130_fd_sc_hd__decap_6
XFILLER_0_144_377 VGND VGND VPWR VPWR sky130_ef_sc_hd__decap_12
XFILLER_0_6_277 VGND VGND VPWR VPWR sky130_ef_sc_hd__decap_12
XFILLER_0_43_865 VGND VGND VPWR VPWR sky130_ef_sc_hd__decap_12
XFILLER_0_113_753 VGND VGND VPWR VPWR sky130_ef_sc_hd__decap_12
XFILLER_0_71_3 VGND VGND VPWR VPWR sky130_ef_sc_hd__decap_12
XFILLER_0_3_951 VGND VGND VPWR VPWR sky130_fd_sc_hd__fill_1
XFILLER_0_113_797 VGND VGND VPWR VPWR sky130_ef_sc_hd__decap_12
XFILLER_0_100_469 VGND VGND VPWR VPWR sky130_fd_sc_hd__decap_6
XFILLER_0_57_1009 VGND VGND VPWR VPWR sky130_ef_sc_hd__decap_12
XFILLER_0_69_217 VGND VGND VPWR VPWR sky130_fd_sc_hd__decap_6
XFILLER_0_168_937 VGND VGND VPWR VPWR sky130_ef_sc_hd__decap_12
XFILLER_0_139_105 VGND VGND VPWR VPWR sky130_fd_sc_hd__decap_6
XFILLER_0_97_559 VGND VGND VPWR VPWR sky130_fd_sc_hd__fill_1
XFILLER_0_167_447 VGND VGND VPWR VPWR sky130_fd_sc_hd__fill_1
XFILLER_0_84_209 VGND VGND VPWR VPWR sky130_ef_sc_hd__decap_12
XFILLER_0_155_609 VGND VGND VPWR VPWR sky130_fd_sc_hd__decap_6
XFILLER_0_139_149 VGND VGND VPWR VPWR sky130_ef_sc_hd__decap_12
XFILLER_0_93_721 VGND VGND VPWR VPWR sky130_fd_sc_hd__decap_6
XFILLER_0_77_261 VGND VGND VPWR VPWR sky130_ef_sc_hd__decap_12
XFILLER_0_38_637 VGND VGND VPWR VPWR sky130_fd_sc_hd__decap_6
XFILLER_0_108_525 VGND VGND VPWR VPWR sky130_fd_sc_hd__decap_6
XFILLER_0_93_765 VGND VGND VPWR VPWR sky130_ef_sc_hd__decap_12
XFILLER_0_66_979 VGND VGND VPWR VPWR sky130_fd_sc_hd__fill_1
XFILLER_0_37_125 VGND VGND VPWR VPWR sky130_ef_sc_hd__decap_12
XFILLER_0_163_653 VGND VGND VPWR VPWR sky130_ef_sc_hd__decap_12
XFILLER_0_147_193 VGND VGND VPWR VPWR sky130_ef_sc_hd__decap_12
XFILLER_0_136_867 VGND VGND VPWR VPWR sky130_fd_sc_hd__fill_1
XFILLER_0_92_253 VGND VGND VPWR VPWR sky130_ef_sc_hd__decap_12
XFILLER_0_53_629 VGND VGND VPWR VPWR sky130_ef_sc_hd__decap_12
XFILLER_0_19_895 VGND VGND VPWR VPWR sky130_fd_sc_hd__fill_1
XFILLER_0_37_169 VGND VGND VPWR VPWR sky130_ef_sc_hd__decap_12
XFILLER_0_162_141 VGND VGND VPWR VPWR sky130_ef_sc_hd__decap_12
XFILLER_0_123_517 VGND VGND VPWR VPWR sky130_ef_sc_hd__decap_12
XFILLER_0_108_569 VGND VGND VPWR VPWR sky130_ef_sc_hd__decap_12
XFILLER_0_52_139 VGND VGND VPWR VPWR sky130_fd_sc_hd__fill_1
XFILLER_0_46_681 VGND VGND VPWR VPWR sky130_ef_sc_hd__decap_12
XFILLER_0_163_697 VGND VGND VPWR VPWR sky130_ef_sc_hd__decap_12
XFILLER_0_61_673 VGND VGND VPWR VPWR sky130_ef_sc_hd__decap_12
XFILLER_0_131_561 VGND VGND VPWR VPWR sky130_ef_sc_hd__decap_12
XFILLER_0_21_559 VGND VGND VPWR VPWR sky130_fd_sc_hd__fill_1
XFILLER_0_29_39 VGND VGND VPWR VPWR sky130_ef_sc_hd__decap_12
XFILLER_0_100_981 VGND VGND VPWR VPWR sky130_ef_sc_hd__decap_12
XFILLER_0_40_1035 VGND VGND VPWR VPWR sky130_fd_sc_hd__fill_1
XFILLER_0_40_1057 VGND VGND VPWR VPWR sky130_fd_sc_hd__fill_2
XFILLER_0_136_29 VGND VGND VPWR VPWR sky130_ef_sc_hd__decap_12
XFILLER_0_45_27 VGND VGND VPWR VPWR sky130_ef_sc_hd__decap_12
XTAP_2161 VGND VPWR sky130_fd_sc_hd__tapvpwrvgnd_1
XTAP_2150 VGND VPWR sky130_fd_sc_hd__tapvpwrvgnd_1
XFILLER_0_61_15 VGND VGND VPWR VPWR sky130_ef_sc_hd__decap_12
XFILLER_0_0_29 VGND VGND VPWR VPWR sky130_ef_sc_hd__decap_12
XFILLER_0_158_469 VGND VGND VPWR VPWR sky130_fd_sc_hd__decap_6
XFILLER_0_111_1007 VGND VGND VPWR VPWR sky130_fd_sc_hd__fill_1
XTAP_2194 VGND VPWR sky130_fd_sc_hd__tapvpwrvgnd_1
XTAP_2183 VGND VPWR sky130_fd_sc_hd__tapvpwrvgnd_1
XTAP_2172 VGND VPWR sky130_fd_sc_hd__tapvpwrvgnd_1
XFILLER_0_96_581 VGND VGND VPWR VPWR sky130_fd_sc_hd__decap_6
XTAP_1460 VGND VPWR sky130_fd_sc_hd__tapvpwrvgnd_1
XFILLER_0_56_401 VGND VGND VPWR VPWR sky130_ef_sc_hd__decap_12
XFILLER_0_29_615 VGND VGND VPWR VPWR sky130_fd_sc_hd__fill_1
XFILLER_0_173_417 VGND VGND VPWR VPWR sky130_ef_sc_hd__decap_12
XFILLER_0_72_905 VGND VGND VPWR VPWR sky130_ef_sc_hd__decap_12
XTAP_1493 VGND VPWR sky130_fd_sc_hd__tapvpwrvgnd_1
XTAP_1471 VGND VPWR sky130_fd_sc_hd__tapvpwrvgnd_1
XTAP_1482 VGND VPWR sky130_fd_sc_hd__tapvpwrvgnd_1
XFILLER_0_56_445 VGND VGND VPWR VPWR sky130_ef_sc_hd__decap_12
XFILLER_0_126_333 VGND VGND VPWR VPWR sky130_ef_sc_hd__decap_12
XFILLER_0_72_949 VGND VGND VPWR VPWR sky130_ef_sc_hd__decap_12
XFILLER_0_56_489 VGND VGND VPWR VPWR sky130_ef_sc_hd__decap_12
XFILLER_0_16_309 VGND VGND VPWR VPWR sky130_ef_sc_hd__decap_12
XFILLER_0_127_889 VGND VGND VPWR VPWR sky130_fd_sc_hd__decap_6
XFILLER_0_126_377 VGND VGND VPWR VPWR sky130_ef_sc_hd__decap_12
XFILLER_0_9_27 VGND VGND VPWR VPWR sky130_ef_sc_hd__decap_12
XFILLER_0_25_821 VGND VGND VPWR VPWR sky130_ef_sc_hd__decap_12
XFILLER_0_142_837 VGND VGND VPWR VPWR sky130_ef_sc_hd__decap_12
XFILLER_0_4_737 VGND VGND VPWR VPWR sky130_ef_sc_hd__decap_12
XFILLER_0_3_225 VGND VGND VPWR VPWR sky130_ef_sc_hd__decap_12
XFILLER_0_25_865 VGND VGND VPWR VPWR sky130_ef_sc_hd__decap_12
XFILLER_0_40_813 VGND VGND VPWR VPWR sky130_ef_sc_hd__decap_12
XFILLER_0_80_993 VGND VGND VPWR VPWR sky130_ef_sc_hd__decap_12
XFILLER_0_51_161 VGND VGND VPWR VPWR sky130_fd_sc_hd__decap_6
XFILLER_0_10_41 VGND VGND VPWR VPWR sky130_ef_sc_hd__decap_12
XFILLER_0_150_881 VGND VGND VPWR VPWR sky130_ef_sc_hd__decap_12
XFILLER_0_110_701 VGND VGND VPWR VPWR sky130_ef_sc_hd__decap_12
XFILLER_0_10_85 VGND VGND VPWR VPWR sky130_ef_sc_hd__decap_12
XFILLER_0_0_921 VGND VGND VPWR VPWR sky130_fd_sc_hd__decap_3
XFILLER_0_0_965 VGND VGND VPWR VPWR sky130_ef_sc_hd__decap_12
XFILLER_0_20_581 VGND VGND VPWR VPWR sky130_fd_sc_hd__decap_6
XFILLER_0_79_559 VGND VGND VPWR VPWR sky130_fd_sc_hd__fill_1
XFILLER_0_66_209 VGND VGND VPWR VPWR sky130_ef_sc_hd__decap_12
XFILLER_0_35_93 VGND VGND VPWR VPWR sky130_ef_sc_hd__decap_12
XFILLER_0_149_447 VGND VGND VPWR VPWR sky130_fd_sc_hd__fill_1
XFILLER_0_137_609 VGND VGND VPWR VPWR sky130_fd_sc_hd__decap_6
XFILLER_0_75_721 VGND VGND VPWR VPWR sky130_fd_sc_hd__decap_6
XFILLER_0_59_261 VGND VGND VPWR VPWR sky130_ef_sc_hd__decap_12
XFILLER_0_158_981 VGND VGND VPWR VPWR sky130_ef_sc_hd__decap_12
XFILLER_0_75_765 VGND VGND VPWR VPWR sky130_ef_sc_hd__decap_12
XFILLER_0_48_979 VGND VGND VPWR VPWR sky130_fd_sc_hd__fill_1
XFILLER_0_19_125 VGND VGND VPWR VPWR sky130_ef_sc_hd__decap_12
XFILLER_0_173_951 VGND VGND VPWR VPWR sky130_fd_sc_hd__fill_1
XFILLER_0_145_653 VGND VGND VPWR VPWR sky130_ef_sc_hd__decap_12
XFILLER_0_142_83 VGND VGND VPWR VPWR sky130_fd_sc_hd__fill_1
XFILLER_0_129_193 VGND VGND VPWR VPWR sky130_ef_sc_hd__decap_12
XFILLER_0_118_867 VGND VGND VPWR VPWR sky130_fd_sc_hd__fill_1
XFILLER_0_90_713 VGND VGND VPWR VPWR sky130_ef_sc_hd__decap_12
XFILLER_0_74_253 VGND VGND VPWR VPWR sky130_ef_sc_hd__decap_12
XFILLER_0_51_81 VGND VGND VPWR VPWR sky130_ef_sc_hd__decap_12
XFILLER_0_19_169 VGND VGND VPWR VPWR sky130_ef_sc_hd__decap_12
XFILLER_0_35_629 VGND VGND VPWR VPWR sky130_ef_sc_hd__decap_12
XFILLER_0_160_601 VGND VGND VPWR VPWR sky130_ef_sc_hd__decap_12
XFILLER_0_144_141 VGND VGND VPWR VPWR sky130_ef_sc_hd__decap_12
XFILLER_0_105_517 VGND VGND VPWR VPWR sky130_ef_sc_hd__decap_12
XFILLER_0_90_757 VGND VGND VPWR VPWR sky130_ef_sc_hd__decap_12
XFILLER_0_7_553 VGND VGND VPWR VPWR sky130_fd_sc_hd__decap_6
XFILLER_0_28_681 VGND VGND VPWR VPWR sky130_ef_sc_hd__decap_12
XFILLER_0_34_139 VGND VGND VPWR VPWR sky130_fd_sc_hd__fill_1
XFILLER_0_160_645 VGND VGND VPWR VPWR sky130_ef_sc_hd__decap_12
XFILLER_0_145_697 VGND VGND VPWR VPWR sky130_ef_sc_hd__decap_12
XFILLER_0_7_597 VGND VGND VPWR VPWR sky130_ef_sc_hd__decap_12
XFILLER_0_30_301 VGND VGND VPWR VPWR sky130_fd_sc_hd__decap_6
XFILLER_0_43_673 VGND VGND VPWR VPWR sky130_ef_sc_hd__decap_12
XFILLER_0_113_561 VGND VGND VPWR VPWR sky130_ef_sc_hd__decap_12
XFILLER_0_63_1057 VGND VGND VPWR VPWR sky130_fd_sc_hd__fill_2
XFILLER_0_30_345 VGND VGND VPWR VPWR sky130_ef_sc_hd__decap_12
XFILLER_0_100_233 VGND VGND VPWR VPWR sky130_ef_sc_hd__decap_12
XFILLER_0_30_389 VGND VGND VPWR VPWR sky130_ef_sc_hd__decap_12
XFILLER_0_100_277 VGND VGND VPWR VPWR sky130_ef_sc_hd__decap_12
XFILLER_0_173_1001 VGND VGND VPWR VPWR sky130_fd_sc_hd__decap_6
XFILLER_0_98_813 VGND VGND VPWR VPWR sky130_ef_sc_hd__decap_12
XFILLER_0_173_1045 VGND VGND VPWR VPWR sky130_ef_sc_hd__decap_12
XFILLER_0_168_701 VGND VGND VPWR VPWR sky130_ef_sc_hd__decap_12
XFILLER_0_134_1029 VGND VGND VPWR VPWR sky130_fd_sc_hd__decap_6
XFILLER_0_70_1017 VGND VGND VPWR VPWR sky130_ef_sc_hd__decap_12
XFILLER_0_85_529 VGND VGND VPWR VPWR sky130_ef_sc_hd__decap_12
XFILLER_0_78_581 VGND VGND VPWR VPWR sky130_fd_sc_hd__decap_6
XFILLER_0_38_401 VGND VGND VPWR VPWR sky130_ef_sc_hd__decap_12
XFILLER_0_155_417 VGND VGND VPWR VPWR sky130_ef_sc_hd__decap_12
XFILLER_0_54_905 VGND VGND VPWR VPWR sky130_ef_sc_hd__decap_12
XFILLER_0_38_445 VGND VGND VPWR VPWR sky130_ef_sc_hd__decap_12
XFILLER_0_108_333 VGND VGND VPWR VPWR sky130_ef_sc_hd__decap_12
XFILLER_0_93_573 VGND VGND VPWR VPWR sky130_ef_sc_hd__decap_12
XFILLER_0_38_489 VGND VGND VPWR VPWR sky130_ef_sc_hd__decap_12
XFILLER_0_164_973 VGND VGND VPWR VPWR sky130_fd_sc_hd__decap_6
XFILLER_0_163_461 VGND VGND VPWR VPWR sky130_ef_sc_hd__decap_12
XFILLER_0_109_889 VGND VGND VPWR VPWR sky130_fd_sc_hd__decap_6
XFILLER_0_108_377 VGND VGND VPWR VPWR sky130_ef_sc_hd__decap_12
XFILLER_0_54_949 VGND VGND VPWR VPWR sky130_ef_sc_hd__decap_12
XFILLER_0_124_837 VGND VGND VPWR VPWR sky130_ef_sc_hd__decap_12
XFILLER_0_80_245 VGND VGND VPWR VPWR sky130_fd_sc_hd__decap_6
XFILLER_0_150_133 VGND VGND VPWR VPWR sky130_fd_sc_hd__decap_6
XFILLER_0_80_289 VGND VGND VPWR VPWR sky130_ef_sc_hd__decap_12
XFILLER_0_62_993 VGND VGND VPWR VPWR sky130_ef_sc_hd__decap_12
XFILLER_0_22_813 VGND VGND VPWR VPWR sky130_ef_sc_hd__decap_12
XFILLER_0_33_161 VGND VGND VPWR VPWR sky130_fd_sc_hd__decap_6
XFILLER_0_40_109 VGND VGND VPWR VPWR sky130_ef_sc_hd__decap_12
XFILLER_0_150_177 VGND VGND VPWR VPWR sky130_ef_sc_hd__decap_12
XFILLER_0_132_881 VGND VGND VPWR VPWR sky130_ef_sc_hd__decap_12
XFILLER_0_1_729 VGND VGND VPWR VPWR sky130_ef_sc_hd__decap_12
XFILLER_0_131_391 VGND VGND VPWR VPWR sky130_fd_sc_hd__fill_1
XTAP_507 VGND VPWR sky130_fd_sc_hd__tapvpwrvgnd_1
XTAP_529 VGND VPWR sky130_fd_sc_hd__tapvpwrvgnd_1
XTAP_518 VGND VPWR sky130_fd_sc_hd__tapvpwrvgnd_1
XFILLER_0_147_39 VGND VGND VPWR VPWR sky130_ef_sc_hd__decap_12
XFILLER_0_56_15 VGND VGND VPWR VPWR sky130_ef_sc_hd__decap_12
XFILLER_0_88_301 VGND VGND VPWR VPWR sky130_fd_sc_hd__decap_6
XFILLER_0_163_27 VGND VGND VPWR VPWR sky130_ef_sc_hd__decap_12
XFILLER_0_88_345 VGND VGND VPWR VPWR sky130_ef_sc_hd__decap_12
XFILLER_0_48_209 VGND VGND VPWR VPWR sky130_ef_sc_hd__decap_12
XFILLER_0_158_233 VGND VGND VPWR VPWR sky130_ef_sc_hd__decap_12
XFILLER_0_119_609 VGND VGND VPWR VPWR sky130_fd_sc_hd__decap_6
XFILLER_0_88_389 VGND VGND VPWR VPWR sky130_ef_sc_hd__decap_12
XFILLER_0_57_721 VGND VGND VPWR VPWR sky130_fd_sc_hd__decap_6
XFILLER_0_158_277 VGND VGND VPWR VPWR sky130_ef_sc_hd__decap_12
XFILLER_0_57_765 VGND VGND VPWR VPWR sky130_ef_sc_hd__decap_12
XFILLER_0_5_1057 VGND VGND VPWR VPWR sky130_fd_sc_hd__fill_2
XFILLER_0_173_225 VGND VGND VPWR VPWR sky130_ef_sc_hd__decap_12
XFILLER_0_155_951 VGND VGND VPWR VPWR sky130_fd_sc_hd__fill_1
XFILLER_0_72_713 VGND VGND VPWR VPWR sky130_ef_sc_hd__decap_12
XFILLER_0_56_253 VGND VGND VPWR VPWR sky130_ef_sc_hd__decap_12
XTAP_1290 VGND VPWR sky130_fd_sc_hd__tapvpwrvgnd_1
XFILLER_0_17_629 VGND VGND VPWR VPWR sky130_ef_sc_hd__decap_12
XFILLER_0_142_601 VGND VGND VPWR VPWR sky130_ef_sc_hd__decap_12
XFILLER_0_127_653 VGND VGND VPWR VPWR sky130_ef_sc_hd__decap_12
XFILLER_0_126_141 VGND VGND VPWR VPWR sky130_ef_sc_hd__decap_12
XFILLER_0_112_53 VGND VGND VPWR VPWR sky130_ef_sc_hd__decap_12
XFILLER_0_86_1035 VGND VGND VPWR VPWR sky130_fd_sc_hd__fill_1
XFILLER_0_72_757 VGND VGND VPWR VPWR sky130_ef_sc_hd__decap_12
XFILLER_0_71_223 VGND VGND VPWR VPWR sky130_fd_sc_hd__fill_1
XFILLER_0_4_501 VGND VGND VPWR VPWR sky130_ef_sc_hd__decap_12
XFILLER_0_16_139 VGND VGND VPWR VPWR sky130_fd_sc_hd__fill_1
XFILLER_0_141_111 VGND VGND VPWR VPWR sky130_fd_sc_hd__fill_1
XFILLER_0_127_697 VGND VGND VPWR VPWR sky130_ef_sc_hd__decap_12
XFILLER_0_86_1057 VGND VGND VPWR VPWR sky130_fd_sc_hd__fill_2
XFILLER_0_21_51 VGND VGND VPWR VPWR sky130_fd_sc_hd__decap_4
XFILLER_0_142_645 VGND VGND VPWR VPWR sky130_ef_sc_hd__decap_12
XFILLER_0_112_97 VGND VGND VPWR VPWR sky130_ef_sc_hd__decap_12
XFILLER_0_4_545 VGND VGND VPWR VPWR sky130_ef_sc_hd__decap_12
XFILLER_0_12_301 VGND VGND VPWR VPWR sky130_fd_sc_hd__decap_6
XFILLER_0_25_673 VGND VGND VPWR VPWR sky130_ef_sc_hd__decap_12