*SPEF "ieee 1481-1999"
*DESIGN "pes_3bit_rc"
*DATE "11:11:11 Fri 11 11, 1111"
*VENDOR "OpenRCX"
*PROGRAM "Parallel Extraction"
*VERSION "1.0"
*DESIGN_FLOW "NAME_SCOPE LOCAL" "PIN_CAP NONE"
*DIVIDER /
*DELIMITER :
*BUS_DELIMITER []
*T_UNIT 1 NS
*C_UNIT 1 PF
*R_UNIT 1 OHM
*L_UNIT 1 HENRY

*NAME_MAP
*3 clk
*4 count[0]
*5 count[1]
*6 count[2]
*7 ori
*8 clknet_0_clk
*9 clknet_1_0__leaf_clk
*10 clknet_1_1__leaf_clk
*11 net1
*12 net2
*13 net3
*14 net4
*15 net5
*16 net6
*17 net7
*18 ori_sky130_fd_sc_hd__inv_2_A_1_Y
*19 ori_sky130_fd_sc_hd__inv_2_A_2_Y
*20 ori_sky130_fd_sc_hd__inv_2_A_Y
*21 FILLER_0_0_1005
*22 FILLER_0_0_1009
*23 FILLER_0_0_1021
*24 FILLER_0_0_1033
*25 FILLER_0_0_1037
*26 FILLER_0_0_1049
*27 FILLER_0_0_1057
*28 FILLER_0_0_109
*29 FILLER_0_0_113
*30 FILLER_0_0_125
*31 FILLER_0_0_137
*32 FILLER_0_0_141
*33 FILLER_0_0_153
*34 FILLER_0_0_165
*35 FILLER_0_0_169
*36 FILLER_0_0_181
*37 FILLER_0_0_193
*38 FILLER_0_0_197
*39 FILLER_0_0_209
*40 FILLER_0_0_21
*41 FILLER_0_0_221
*42 FILLER_0_0_225
*43 FILLER_0_0_237
*44 FILLER_0_0_249
*45 FILLER_0_0_253
*46 FILLER_0_0_265
*47 FILLER_0_0_27
*48 FILLER_0_0_277
*49 FILLER_0_0_281
*50 FILLER_0_0_29
*51 FILLER_0_0_293
*52 FILLER_0_0_305
*53 FILLER_0_0_309
*54 FILLER_0_0_321
*55 FILLER_0_0_333
*56 FILLER_0_0_337
*57 FILLER_0_0_349
*58 FILLER_0_0_361
*59 FILLER_0_0_365
*60 FILLER_0_0_377
*61 FILLER_0_0_389
*62 FILLER_0_0_393
*63 FILLER_0_0_405
*64 FILLER_0_0_41
*65 FILLER_0_0_417
*66 FILLER_0_0_421
*67 FILLER_0_0_433
*68 FILLER_0_0_445
*69 FILLER_0_0_449
*70 FILLER_0_0_461
*71 FILLER_0_0_473
*72 FILLER_0_0_477
*73 FILLER_0_0_489
*74 FILLER_0_0_501
*75 FILLER_0_0_505
*76 FILLER_0_0_517
*77 FILLER_0_0_529
*78 FILLER_0_0_53
*79 FILLER_0_0_533
*80 FILLER_0_0_545
*81 FILLER_0_0_557
*82 FILLER_0_0_561
*83 FILLER_0_0_57
*84 FILLER_0_0_573
*85 FILLER_0_0_585
*86 FILLER_0_0_589
*87 FILLER_0_0_601
*88 FILLER_0_0_613
*89 FILLER_0_0_617
*90 FILLER_0_0_629
*91 FILLER_0_0_641
*92 FILLER_0_0_645
*93 FILLER_0_0_657
*94 FILLER_0_0_669
*95 FILLER_0_0_673
*96 FILLER_0_0_685
*97 FILLER_0_0_69
*98 FILLER_0_0_697
*99 FILLER_0_0_701
*100 FILLER_0_0_713
*101 FILLER_0_0_725
*102 FILLER_0_0_729
*103 FILLER_0_0_741
*104 FILLER_0_0_753
*105 FILLER_0_0_757
*106 FILLER_0_0_769
*107 FILLER_0_0_781
*108 FILLER_0_0_785
*109 FILLER_0_0_797
*110 FILLER_0_0_809
*111 FILLER_0_0_81
*112 FILLER_0_0_813
*113 FILLER_0_0_825
*114 FILLER_0_0_837
*115 FILLER_0_0_847
*116 FILLER_0_0_85
*117 FILLER_0_0_859
*118 FILLER_0_0_867
*119 FILLER_0_0_869
*120 FILLER_0_0_881
*121 FILLER_0_0_893
*122 FILLER_0_0_897
*123 FILLER_0_0_9
*124 FILLER_0_0_909
*125 FILLER_0_0_921
*126 FILLER_0_0_925
*127 FILLER_0_0_937
*128 FILLER_0_0_949
*129 FILLER_0_0_953
*130 FILLER_0_0_965
*131 FILLER_0_0_97
*132 FILLER_0_0_977
*133 FILLER_0_0_981
*134 FILLER_0_0_993
*135 FILLER_0_100_1005
*136 FILLER_0_100_1017
*137 FILLER_0_100_1029
*138 FILLER_0_100_1035
*139 FILLER_0_100_1037
*140 FILLER_0_100_1049
*141 FILLER_0_100_1057
*142 FILLER_0_100_109
*143 FILLER_0_100_121
*144 FILLER_0_100_133
*145 FILLER_0_100_139
*146 FILLER_0_100_141
*147 FILLER_0_100_15
*148 FILLER_0_100_153
*149 FILLER_0_100_165
*150 FILLER_0_100_177
*151 FILLER_0_100_189
*152 FILLER_0_100_195
*153 FILLER_0_100_197
*154 FILLER_0_100_209
*155 FILLER_0_100_221
*156 FILLER_0_100_233
*157 FILLER_0_100_245
*158 FILLER_0_100_251
*159 FILLER_0_100_253
*160 FILLER_0_100_265
*161 FILLER_0_100_27
*162 FILLER_0_100_277
*163 FILLER_0_100_289
*164 FILLER_0_100_29
*165 FILLER_0_100_3
*166 FILLER_0_100_301
*167 FILLER_0_100_307
*168 FILLER_0_100_309
*169 FILLER_0_100_321
*170 FILLER_0_100_333
*171 FILLER_0_100_345
*172 FILLER_0_100_357
*173 FILLER_0_100_363
*174 FILLER_0_100_365
*175 FILLER_0_100_377
*176 FILLER_0_100_389
*177 FILLER_0_100_401
*178 FILLER_0_100_41
*179 FILLER_0_100_413
*180 FILLER_0_100_419
*181 FILLER_0_100_421
*182 FILLER_0_100_433
*183 FILLER_0_100_445
*184 FILLER_0_100_457
*185 FILLER_0_100_469
*186 FILLER_0_100_475
*187 FILLER_0_100_477
*188 FILLER_0_100_489
*189 FILLER_0_100_501
*190 FILLER_0_100_513
*191 FILLER_0_100_525
*192 FILLER_0_100_53
*193 FILLER_0_100_531
*194 FILLER_0_100_533
*195 FILLER_0_100_545
*196 FILLER_0_100_557
*197 FILLER_0_100_569
*198 FILLER_0_100_581
*199 FILLER_0_100_587
*200 FILLER_0_100_589
*201 FILLER_0_100_601
*202 FILLER_0_100_609
*203 FILLER_0_100_630
*204 FILLER_0_100_642
*205 FILLER_0_100_645
*206 FILLER_0_100_65
*207 FILLER_0_100_657
*208 FILLER_0_100_669
*209 FILLER_0_100_681
*210 FILLER_0_100_693
*211 FILLER_0_100_699
*212 FILLER_0_100_701
*213 FILLER_0_100_713
*214 FILLER_0_100_725
*215 FILLER_0_100_737
*216 FILLER_0_100_749
*217 FILLER_0_100_755
*218 FILLER_0_100_757
*219 FILLER_0_100_769
*220 FILLER_0_100_77
*221 FILLER_0_100_781
*222 FILLER_0_100_793
*223 FILLER_0_100_805
*224 FILLER_0_100_811
*225 FILLER_0_100_813
*226 FILLER_0_100_825
*227 FILLER_0_100_83
*228 FILLER_0_100_837
*229 FILLER_0_100_849
*230 FILLER_0_100_85
*231 FILLER_0_100_861
*232 FILLER_0_100_867
*233 FILLER_0_100_869
*234 FILLER_0_100_881
*235 FILLER_0_100_893
*236 FILLER_0_100_905
*237 FILLER_0_100_917
*238 FILLER_0_100_923
*239 FILLER_0_100_925
*240 FILLER_0_100_937
*241 FILLER_0_100_949
*242 FILLER_0_100_961
*243 FILLER_0_100_97
*244 FILLER_0_100_973
*245 FILLER_0_100_979
*246 FILLER_0_100_981
*247 FILLER_0_100_993
*248 FILLER_0_101_1001
*249 FILLER_0_101_1007
*250 FILLER_0_101_1009
*251 FILLER_0_101_1021
*252 FILLER_0_101_1033
*253 FILLER_0_101_1045
*254 FILLER_0_101_105
*255 FILLER_0_101_1057
*256 FILLER_0_101_111
*257 FILLER_0_101_113
*258 FILLER_0_101_125
*259 FILLER_0_101_137
*260 FILLER_0_101_149
*261 FILLER_0_101_15
*262 FILLER_0_101_161
*263 FILLER_0_101_167
*264 FILLER_0_101_169
*265 FILLER_0_101_181
*266 FILLER_0_101_193
*267 FILLER_0_101_205
*268 FILLER_0_101_217
*269 FILLER_0_101_223
*270 FILLER_0_101_225
*271 FILLER_0_101_237
*272 FILLER_0_101_249
*273 FILLER_0_101_261
*274 FILLER_0_101_27
*275 FILLER_0_101_273
*276 FILLER_0_101_279
*277 FILLER_0_101_281
*278 FILLER_0_101_293
*279 FILLER_0_101_3
*280 FILLER_0_101_305
*281 FILLER_0_101_317
*282 FILLER_0_101_329
*283 FILLER_0_101_335
*284 FILLER_0_101_337
*285 FILLER_0_101_349
*286 FILLER_0_101_361
*287 FILLER_0_101_373
*288 FILLER_0_101_385
*289 FILLER_0_101_39
*290 FILLER_0_101_391
*291 FILLER_0_101_393
*292 FILLER_0_101_405
*293 FILLER_0_101_417
*294 FILLER_0_101_429
*295 FILLER_0_101_441
*296 FILLER_0_101_447
*297 FILLER_0_101_449
*298 FILLER_0_101_461
*299 FILLER_0_101_473
*300 FILLER_0_101_485
*301 FILLER_0_101_497
*302 FILLER_0_101_503
*303 FILLER_0_101_505
*304 FILLER_0_101_51
*305 FILLER_0_101_517
*306 FILLER_0_101_529
*307 FILLER_0_101_541
*308 FILLER_0_101_55
*309 FILLER_0_101_553
*310 FILLER_0_101_559
*311 FILLER_0_101_561
*312 FILLER_0_101_57
*313 FILLER_0_101_573
*314 FILLER_0_101_585
*315 FILLER_0_101_597
*316 FILLER_0_101_609
*317 FILLER_0_101_615
*318 FILLER_0_101_617
*319 FILLER_0_101_629
*320 FILLER_0_101_664
*321 FILLER_0_101_69
*322 FILLER_0_101_693
*323 FILLER_0_101_705
*324 FILLER_0_101_717
*325 FILLER_0_101_725
*326 FILLER_0_101_729
*327 FILLER_0_101_741
*328 FILLER_0_101_753
*329 FILLER_0_101_765
*330 FILLER_0_101_777
*331 FILLER_0_101_783
*332 FILLER_0_101_785
*333 FILLER_0_101_797
*334 FILLER_0_101_809
*335 FILLER_0_101_81
*336 FILLER_0_101_821
*337 FILLER_0_101_833
*338 FILLER_0_101_839
*339 FILLER_0_101_841
*340 FILLER_0_101_853
*341 FILLER_0_101_865
*342 FILLER_0_101_877
*343 FILLER_0_101_889
*344 FILLER_0_101_895
*345 FILLER_0_101_897
*346 FILLER_0_101_909
*347 FILLER_0_101_921
*348 FILLER_0_101_93
*349 FILLER_0_101_933
*350 FILLER_0_101_945
*351 FILLER_0_101_951
*352 FILLER_0_101_953
*353 FILLER_0_101_965
*354 FILLER_0_101_977
*355 FILLER_0_101_989
*356 FILLER_0_102_1005
*357 FILLER_0_102_1017
*358 FILLER_0_102_1029
*359 FILLER_0_102_1035
*360 FILLER_0_102_1037
*361 FILLER_0_102_1049
*362 FILLER_0_102_1057
*363 FILLER_0_102_109
*364 FILLER_0_102_121
*365 FILLER_0_102_133
*366 FILLER_0_102_139
*367 FILLER_0_102_141
*368 FILLER_0_102_15
*369 FILLER_0_102_153
*370 FILLER_0_102_165
*371 FILLER_0_102_177
*372 FILLER_0_102_189
*373 FILLER_0_102_195
*374 FILLER_0_102_197
*375 FILLER_0_102_209
*376 FILLER_0_102_221
*377 FILLER_0_102_233
*378 FILLER_0_102_245
*379 FILLER_0_102_251
*380 FILLER_0_102_253
*381 FILLER_0_102_265
*382 FILLER_0_102_27
*383 FILLER_0_102_277
*384 FILLER_0_102_289
*385 FILLER_0_102_29
*386 FILLER_0_102_3
*387 FILLER_0_102_301
*388 FILLER_0_102_307
*389 FILLER_0_102_309
*390 FILLER_0_102_321
*391 FILLER_0_102_333
*392 FILLER_0_102_345
*393 FILLER_0_102_357
*394 FILLER_0_102_363
*395 FILLER_0_102_365
*396 FILLER_0_102_377
*397 FILLER_0_102_389
*398 FILLER_0_102_401
*399 FILLER_0_102_41
*400 FILLER_0_102_413
*401 FILLER_0_102_419
*402 FILLER_0_102_421
*403 FILLER_0_102_433
*404 FILLER_0_102_445
*405 FILLER_0_102_457
*406 FILLER_0_102_469
*407 FILLER_0_102_475
*408 FILLER_0_102_477
*409 FILLER_0_102_489
*410 FILLER_0_102_501
*411 FILLER_0_102_513
*412 FILLER_0_102_525
*413 FILLER_0_102_53
*414 FILLER_0_102_531
*415 FILLER_0_102_533
*416 FILLER_0_102_545
*417 FILLER_0_102_557
*418 FILLER_0_102_569
*419 FILLER_0_102_581
*420 FILLER_0_102_587
*421 FILLER_0_102_589
*422 FILLER_0_102_601
*423 FILLER_0_102_613
*424 FILLER_0_102_625
*425 FILLER_0_102_637
*426 FILLER_0_102_643
*427 FILLER_0_102_65
*428 FILLER_0_102_666
*429 FILLER_0_102_678
*430 FILLER_0_102_690
*431 FILLER_0_102_698
*432 FILLER_0_102_701
*433 FILLER_0_102_713
*434 FILLER_0_102_725
*435 FILLER_0_102_737
*436 FILLER_0_102_749
*437 FILLER_0_102_755
*438 FILLER_0_102_757
*439 FILLER_0_102_769
*440 FILLER_0_102_77
*441 FILLER_0_102_781
*442 FILLER_0_102_793
*443 FILLER_0_102_805
*444 FILLER_0_102_811
*445 FILLER_0_102_813
*446 FILLER_0_102_825
*447 FILLER_0_102_83
*448 FILLER_0_102_837
*449 FILLER_0_102_849
*450 FILLER_0_102_85
*451 FILLER_0_102_861
*452 FILLER_0_102_867
*453 FILLER_0_102_869
*454 FILLER_0_102_881
*455 FILLER_0_102_893
*456 FILLER_0_102_905
*457 FILLER_0_102_917
*458 FILLER_0_102_923
*459 FILLER_0_102_925
*460 FILLER_0_102_937
*461 FILLER_0_102_949
*462 FILLER_0_102_961
*463 FILLER_0_102_97
*464 FILLER_0_102_973
*465 FILLER_0_102_979
*466 FILLER_0_102_981
*467 FILLER_0_102_993
*468 FILLER_0_103_1001
*469 FILLER_0_103_1007
*470 FILLER_0_103_1009
*471 FILLER_0_103_1021
*472 FILLER_0_103_1033
*473 FILLER_0_103_1045
*474 FILLER_0_103_105
*475 FILLER_0_103_1057
*476 FILLER_0_103_111
*477 FILLER_0_103_113
*478 FILLER_0_103_125
*479 FILLER_0_103_137
*480 FILLER_0_103_149
*481 FILLER_0_103_15
*482 FILLER_0_103_161
*483 FILLER_0_103_167
*484 FILLER_0_103_169
*485 FILLER_0_103_181
*486 FILLER_0_103_193
*487 FILLER_0_103_205
*488 FILLER_0_103_217
*489 FILLER_0_103_223
*490 FILLER_0_103_225
*491 FILLER_0_103_237
*492 FILLER_0_103_249
*493 FILLER_0_103_261
*494 FILLER_0_103_27
*495 FILLER_0_103_273
*496 FILLER_0_103_279
*497 FILLER_0_103_281
*498 FILLER_0_103_293
*499 FILLER_0_103_3
*500 FILLER_0_103_305
*501 FILLER_0_103_317
*502 FILLER_0_103_329
*503 FILLER_0_103_335
*504 FILLER_0_103_337
*505 FILLER_0_103_349
*506 FILLER_0_103_361
*507 FILLER_0_103_373
*508 FILLER_0_103_385
*509 FILLER_0_103_39
*510 FILLER_0_103_391
*511 FILLER_0_103_393
*512 FILLER_0_103_405
*513 FILLER_0_103_417
*514 FILLER_0_103_429
*515 FILLER_0_103_441
*516 FILLER_0_103_447
*517 FILLER_0_103_449
*518 FILLER_0_103_461
*519 FILLER_0_103_473
*520 FILLER_0_103_485
*521 FILLER_0_103_497
*522 FILLER_0_103_503
*523 FILLER_0_103_505
*524 FILLER_0_103_51
*525 FILLER_0_103_517
*526 FILLER_0_103_529
*527 FILLER_0_103_541
*528 FILLER_0_103_55
*529 FILLER_0_103_553
*530 FILLER_0_103_559
*531 FILLER_0_103_561
*532 FILLER_0_103_57
*533 FILLER_0_103_573
*534 FILLER_0_103_585
*535 FILLER_0_103_597
*536 FILLER_0_103_609
*537 FILLER_0_103_615
*538 FILLER_0_103_617
*539 FILLER_0_103_629
*540 FILLER_0_103_670
*541 FILLER_0_103_673
*542 FILLER_0_103_685
*543 FILLER_0_103_69
*544 FILLER_0_103_697
*545 FILLER_0_103_709
*546 FILLER_0_103_721
*547 FILLER_0_103_727
*548 FILLER_0_103_729
*549 FILLER_0_103_741
*550 FILLER_0_103_753
*551 FILLER_0_103_765
*552 FILLER_0_103_777
*553 FILLER_0_103_783
*554 FILLER_0_103_785
*555 FILLER_0_103_797
*556 FILLER_0_103_809
*557 FILLER_0_103_81
*558 FILLER_0_103_821
*559 FILLER_0_103_833
*560 FILLER_0_103_839
*561 FILLER_0_103_841
*562 FILLER_0_103_853
*563 FILLER_0_103_865
*564 FILLER_0_103_877
*565 FILLER_0_103_889
*566 FILLER_0_103_895
*567 FILLER_0_103_897
*568 FILLER_0_103_909
*569 FILLER_0_103_921
*570 FILLER_0_103_93
*571 FILLER_0_103_933
*572 FILLER_0_103_945
*573 FILLER_0_103_951
*574 FILLER_0_103_953
*575 FILLER_0_103_965
*576 FILLER_0_103_977
*577 FILLER_0_103_989
*578 FILLER_0_104_1005
*579 FILLER_0_104_1017
*580 FILLER_0_104_1029
*581 FILLER_0_104_1035
*582 FILLER_0_104_1037
*583 FILLER_0_104_1049
*584 FILLER_0_104_109
*585 FILLER_0_104_121
*586 FILLER_0_104_133
*587 FILLER_0_104_139
*588 FILLER_0_104_141
*589 FILLER_0_104_15
*590 FILLER_0_104_153
*591 FILLER_0_104_165
*592 FILLER_0_104_177
*593 FILLER_0_104_189
*594 FILLER_0_104_195
*595 FILLER_0_104_197
*596 FILLER_0_104_209
*597 FILLER_0_104_221
*598 FILLER_0_104_233
*599 FILLER_0_104_245
*600 FILLER_0_104_251
*601 FILLER_0_104_253
*602 FILLER_0_104_265
*603 FILLER_0_104_27
*604 FILLER_0_104_277
*605 FILLER_0_104_289
*606 FILLER_0_104_29
*607 FILLER_0_104_3
*608 FILLER_0_104_301
*609 FILLER_0_104_307
*610 FILLER_0_104_309
*611 FILLER_0_104_321
*612 FILLER_0_104_333
*613 FILLER_0_104_345
*614 FILLER_0_104_357
*615 FILLER_0_104_363
*616 FILLER_0_104_365
*617 FILLER_0_104_377
*618 FILLER_0_104_389
*619 FILLER_0_104_401
*620 FILLER_0_104_41
*621 FILLER_0_104_413
*622 FILLER_0_104_419
*623 FILLER_0_104_421
*624 FILLER_0_104_433
*625 FILLER_0_104_445
*626 FILLER_0_104_457
*627 FILLER_0_104_469
*628 FILLER_0_104_475
*629 FILLER_0_104_477
*630 FILLER_0_104_489
*631 FILLER_0_104_501
*632 FILLER_0_104_513
*633 FILLER_0_104_525
*634 FILLER_0_104_53
*635 FILLER_0_104_531
*636 FILLER_0_104_533
*637 FILLER_0_104_545
*638 FILLER_0_104_557
*639 FILLER_0_104_569
*640 FILLER_0_104_581
*641 FILLER_0_104_587
*642 FILLER_0_104_589
*643 FILLER_0_104_601
*644 FILLER_0_104_613
*645 FILLER_0_104_625
*646 FILLER_0_104_637
*647 FILLER_0_104_643
*648 FILLER_0_104_645
*649 FILLER_0_104_65
*650 FILLER_0_104_669
*651 FILLER_0_104_681
*652 FILLER_0_104_693
*653 FILLER_0_104_699
*654 FILLER_0_104_701
*655 FILLER_0_104_713
*656 FILLER_0_104_725
*657 FILLER_0_104_737
*658 FILLER_0_104_749
*659 FILLER_0_104_755
*660 FILLER_0_104_757
*661 FILLER_0_104_769
*662 FILLER_0_104_77
*663 FILLER_0_104_781
*664 FILLER_0_104_793
*665 FILLER_0_104_805
*666 FILLER_0_104_811
*667 FILLER_0_104_813
*668 FILLER_0_104_825
*669 FILLER_0_104_83
*670 FILLER_0_104_837
*671 FILLER_0_104_849
*672 FILLER_0_104_85
*673 FILLER_0_104_861
*674 FILLER_0_104_867
*675 FILLER_0_104_869
*676 FILLER_0_104_881
*677 FILLER_0_104_893
*678 FILLER_0_104_905
*679 FILLER_0_104_917
*680 FILLER_0_104_923
*681 FILLER_0_104_925
*682 FILLER_0_104_937
*683 FILLER_0_104_949
*684 FILLER_0_104_961
*685 FILLER_0_104_97
*686 FILLER_0_104_973
*687 FILLER_0_104_979
*688 FILLER_0_104_981
*689 FILLER_0_104_993
*690 FILLER_0_105_1001
*691 FILLER_0_105_1007
*692 FILLER_0_105_1009
*693 FILLER_0_105_1021
*694 FILLER_0_105_1033
*695 FILLER_0_105_1045
*696 FILLER_0_105_105
*697 FILLER_0_105_1057
*698 FILLER_0_105_111
*699 FILLER_0_105_113
*700 FILLER_0_105_125
*701 FILLER_0_105_137
*702 FILLER_0_105_149
*703 FILLER_0_105_15
*704 FILLER_0_105_161
*705 FILLER_0_105_167
*706 FILLER_0_105_169
*707 FILLER_0_105_181
*708 FILLER_0_105_193
*709 FILLER_0_105_205
*710 FILLER_0_105_217
*711 FILLER_0_105_223
*712 FILLER_0_105_225
*713 FILLER_0_105_237
*714 FILLER_0_105_249
*715 FILLER_0_105_261
*716 FILLER_0_105_27
*717 FILLER_0_105_273
*718 FILLER_0_105_279
*719 FILLER_0_105_281
*720 FILLER_0_105_293
*721 FILLER_0_105_3
*722 FILLER_0_105_305
*723 FILLER_0_105_317
*724 FILLER_0_105_329
*725 FILLER_0_105_335
*726 FILLER_0_105_337
*727 FILLER_0_105_349
*728 FILLER_0_105_361
*729 FILLER_0_105_373
*730 FILLER_0_105_385
*731 FILLER_0_105_39
*732 FILLER_0_105_391
*733 FILLER_0_105_393
*734 FILLER_0_105_405
*735 FILLER_0_105_417
*736 FILLER_0_105_429
*737 FILLER_0_105_441
*738 FILLER_0_105_447
*739 FILLER_0_105_449
*740 FILLER_0_105_461
*741 FILLER_0_105_473
*742 FILLER_0_105_485
*743 FILLER_0_105_497
*744 FILLER_0_105_503
*745 FILLER_0_105_505
*746 FILLER_0_105_51
*747 FILLER_0_105_517
*748 FILLER_0_105_529
*749 FILLER_0_105_541
*750 FILLER_0_105_55
*751 FILLER_0_105_553
*752 FILLER_0_105_559
*753 FILLER_0_105_561
*754 FILLER_0_105_57
*755 FILLER_0_105_573
*756 FILLER_0_105_585
*757 FILLER_0_105_597
*758 FILLER_0_105_609
*759 FILLER_0_105_615
*760 FILLER_0_105_617
*761 FILLER_0_105_629
*762 FILLER_0_105_641
*763 FILLER_0_105_659
*764 FILLER_0_105_671
*765 FILLER_0_105_673
*766 FILLER_0_105_685
*767 FILLER_0_105_69
*768 FILLER_0_105_697
*769 FILLER_0_105_709
*770 FILLER_0_105_721
*771 FILLER_0_105_727
*772 FILLER_0_105_729
*773 FILLER_0_105_741
*774 FILLER_0_105_753
*775 FILLER_0_105_765
*776 FILLER_0_105_777
*777 FILLER_0_105_783
*778 FILLER_0_105_785
*779 FILLER_0_105_797
*780 FILLER_0_105_809
*781 FILLER_0_105_81
*782 FILLER_0_105_821
*783 FILLER_0_105_833
*784 FILLER_0_105_839
*785 FILLER_0_105_841
*786 FILLER_0_105_853
*787 FILLER_0_105_865
*788 FILLER_0_105_877
*789 FILLER_0_105_889
*790 FILLER_0_105_895
*791 FILLER_0_105_897
*792 FILLER_0_105_909
*793 FILLER_0_105_921
*794 FILLER_0_105_93
*795 FILLER_0_105_933
*796 FILLER_0_105_945
*797 FILLER_0_105_951
*798 FILLER_0_105_953
*799 FILLER_0_105_965
*800 FILLER_0_105_977
*801 FILLER_0_105_989
*802 FILLER_0_106_1005
*803 FILLER_0_106_1017
*804 FILLER_0_106_1029
*805 FILLER_0_106_1035
*806 FILLER_0_106_1037
*807 FILLER_0_106_1049
*808 FILLER_0_106_1057
*809 FILLER_0_106_109
*810 FILLER_0_106_121
*811 FILLER_0_106_133
*812 FILLER_0_106_139
*813 FILLER_0_106_141
*814 FILLER_0_106_15
*815 FILLER_0_106_153
*816 FILLER_0_106_165
*817 FILLER_0_106_177
*818 FILLER_0_106_189
*819 FILLER_0_106_195
*820 FILLER_0_106_197
*821 FILLER_0_106_209
*822 FILLER_0_106_221
*823 FILLER_0_106_233
*824 FILLER_0_106_245
*825 FILLER_0_106_251
*826 FILLER_0_106_253
*827 FILLER_0_106_265
*828 FILLER_0_106_27
*829 FILLER_0_106_277
*830 FILLER_0_106_289
*831 FILLER_0_106_29
*832 FILLER_0_106_3
*833 FILLER_0_106_301
*834 FILLER_0_106_307
*835 FILLER_0_106_309
*836 FILLER_0_106_321
*837 FILLER_0_106_333
*838 FILLER_0_106_345
*839 FILLER_0_106_357
*840 FILLER_0_106_363
*841 FILLER_0_106_365
*842 FILLER_0_106_377
*843 FILLER_0_106_389
*844 FILLER_0_106_401
*845 FILLER_0_106_41
*846 FILLER_0_106_413
*847 FILLER_0_106_419
*848 FILLER_0_106_421
*849 FILLER_0_106_433
*850 FILLER_0_106_445
*851 FILLER_0_106_457
*852 FILLER_0_106_469
*853 FILLER_0_106_475
*854 FILLER_0_106_477
*855 FILLER_0_106_489
*856 FILLER_0_106_501
*857 FILLER_0_106_513
*858 FILLER_0_106_525
*859 FILLER_0_106_53
*860 FILLER_0_106_531
*861 FILLER_0_106_533
*862 FILLER_0_106_545
*863 FILLER_0_106_557
*864 FILLER_0_106_569
*865 FILLER_0_106_581
*866 FILLER_0_106_587
*867 FILLER_0_106_589
*868 FILLER_0_106_601
*869 FILLER_0_106_613
*870 FILLER_0_106_625
*871 FILLER_0_106_637
*872 FILLER_0_106_643
*873 FILLER_0_106_645
*874 FILLER_0_106_65
*875 FILLER_0_106_657
*876 FILLER_0_106_669
*877 FILLER_0_106_681
*878 FILLER_0_106_693
*879 FILLER_0_106_699
*880 FILLER_0_106_701
*881 FILLER_0_106_713
*882 FILLER_0_106_725
*883 FILLER_0_106_737
*884 FILLER_0_106_749
*885 FILLER_0_106_755
*886 FILLER_0_106_757
*887 FILLER_0_106_769
*888 FILLER_0_106_77
*889 FILLER_0_106_781
*890 FILLER_0_106_793
*891 FILLER_0_106_805
*892 FILLER_0_106_811
*893 FILLER_0_106_813
*894 FILLER_0_106_825
*895 FILLER_0_106_83
*896 FILLER_0_106_837
*897 FILLER_0_106_849
*898 FILLER_0_106_85
*899 FILLER_0_106_861
*900 FILLER_0_106_867
*901 FILLER_0_106_869
*902 FILLER_0_106_881
*903 FILLER_0_106_893
*904 FILLER_0_106_905
*905 FILLER_0_106_917
*906 FILLER_0_106_923
*907 FILLER_0_106_925
*908 FILLER_0_106_937
*909 FILLER_0_106_949
*910 FILLER_0_106_961
*911 FILLER_0_106_97
*912 FILLER_0_106_973
*913 FILLER_0_106_979
*914 FILLER_0_106_981
*915 FILLER_0_106_993
*916 FILLER_0_107_1001
*917 FILLER_0_107_1007
*918 FILLER_0_107_1009
*919 FILLER_0_107_1021
*920 FILLER_0_107_1033
*921 FILLER_0_107_1045
*922 FILLER_0_107_105
*923 FILLER_0_107_1057
*924 FILLER_0_107_111
*925 FILLER_0_107_113
*926 FILLER_0_107_125
*927 FILLER_0_107_137
*928 FILLER_0_107_149
*929 FILLER_0_107_15
*930 FILLER_0_107_161
*931 FILLER_0_107_167
*932 FILLER_0_107_169
*933 FILLER_0_107_181
*934 FILLER_0_107_193
*935 FILLER_0_107_205
*936 FILLER_0_107_217
*937 FILLER_0_107_223
*938 FILLER_0_107_225
*939 FILLER_0_107_237
*940 FILLER_0_107_249
*941 FILLER_0_107_261
*942 FILLER_0_107_27
*943 FILLER_0_107_273
*944 FILLER_0_107_279
*945 FILLER_0_107_281
*946 FILLER_0_107_293
*947 FILLER_0_107_3
*948 FILLER_0_107_305
*949 FILLER_0_107_317
*950 FILLER_0_107_329
*951 FILLER_0_107_335
*952 FILLER_0_107_337
*953 FILLER_0_107_349
*954 FILLER_0_107_361
*955 FILLER_0_107_373
*956 FILLER_0_107_385
*957 FILLER_0_107_39
*958 FILLER_0_107_391
*959 FILLER_0_107_393
*960 FILLER_0_107_405
*961 FILLER_0_107_417
*962 FILLER_0_107_429
*963 FILLER_0_107_441
*964 FILLER_0_107_447
*965 FILLER_0_107_449
*966 FILLER_0_107_461
*967 FILLER_0_107_473
*968 FILLER_0_107_485
*969 FILLER_0_107_497
*970 FILLER_0_107_503
*971 FILLER_0_107_505
*972 FILLER_0_107_51
*973 FILLER_0_107_517
*974 FILLER_0_107_529
*975 FILLER_0_107_541
*976 FILLER_0_107_55
*977 FILLER_0_107_553
*978 FILLER_0_107_559
*979 FILLER_0_107_561
*980 FILLER_0_107_57
*981 FILLER_0_107_573
*982 FILLER_0_107_585
*983 FILLER_0_107_597
*984 FILLER_0_107_609
*985 FILLER_0_107_615
*986 FILLER_0_107_617
*987 FILLER_0_107_629
*988 FILLER_0_107_641
*989 FILLER_0_107_653
*990 FILLER_0_107_665
*991 FILLER_0_107_671
*992 FILLER_0_107_673
*993 FILLER_0_107_685
*994 FILLER_0_107_69
*995 FILLER_0_107_697
*996 FILLER_0_107_709
*997 FILLER_0_107_721
*998 FILLER_0_107_727
*999 FILLER_0_107_729
*1000 FILLER_0_107_741
*1001 FILLER_0_107_753
*1002 FILLER_0_107_765
*1003 FILLER_0_107_777
*1004 FILLER_0_107_783
*1005 FILLER_0_107_785
*1006 FILLER_0_107_797
*1007 FILLER_0_107_809
*1008 FILLER_0_107_81
*1009 FILLER_0_107_821
*1010 FILLER_0_107_833
*1011 FILLER_0_107_839
*1012 FILLER_0_107_841
*1013 FILLER_0_107_853
*1014 FILLER_0_107_865
*1015 FILLER_0_107_877
*1016 FILLER_0_107_889
*1017 FILLER_0_107_895
*1018 FILLER_0_107_897
*1019 FILLER_0_107_909
*1020 FILLER_0_107_921
*1021 FILLER_0_107_93
*1022 FILLER_0_107_933
*1023 FILLER_0_107_945
*1024 FILLER_0_107_951
*1025 FILLER_0_107_953
*1026 FILLER_0_107_965
*1027 FILLER_0_107_977
*1028 FILLER_0_107_989
*1029 FILLER_0_108_1005
*1030 FILLER_0_108_1017
*1031 FILLER_0_108_1029
*1032 FILLER_0_108_1035
*1033 FILLER_0_108_1037
*1034 FILLER_0_108_1049
*1035 FILLER_0_108_1057
*1036 FILLER_0_108_109
*1037 FILLER_0_108_121
*1038 FILLER_0_108_133
*1039 FILLER_0_108_139
*1040 FILLER_0_108_141
*1041 FILLER_0_108_15
*1042 FILLER_0_108_153
*1043 FILLER_0_108_165
*1044 FILLER_0_108_177
*1045 FILLER_0_108_189
*1046 FILLER_0_108_195
*1047 FILLER_0_108_197
*1048 FILLER_0_108_209
*1049 FILLER_0_108_221
*1050 FILLER_0_108_233
*1051 FILLER_0_108_245
*1052 FILLER_0_108_251
*1053 FILLER_0_108_253
*1054 FILLER_0_108_265
*1055 FILLER_0_108_27
*1056 FILLER_0_108_277
*1057 FILLER_0_108_289
*1058 FILLER_0_108_29
*1059 FILLER_0_108_3
*1060 FILLER_0_108_301
*1061 FILLER_0_108_307
*1062 FILLER_0_108_309
*1063 FILLER_0_108_321
*1064 FILLER_0_108_333
*1065 FILLER_0_108_345
*1066 FILLER_0_108_357
*1067 FILLER_0_108_363
*1068 FILLER_0_108_365
*1069 FILLER_0_108_377
*1070 FILLER_0_108_389
*1071 FILLER_0_108_401
*1072 FILLER_0_108_41
*1073 FILLER_0_108_413
*1074 FILLER_0_108_419
*1075 FILLER_0_108_421
*1076 FILLER_0_108_433
*1077 FILLER_0_108_445
*1078 FILLER_0_108_457
*1079 FILLER_0_108_469
*1080 FILLER_0_108_475
*1081 FILLER_0_108_477
*1082 FILLER_0_108_489
*1083 FILLER_0_108_501
*1084 FILLER_0_108_513
*1085 FILLER_0_108_525
*1086 FILLER_0_108_53
*1087 FILLER_0_108_531
*1088 FILLER_0_108_533
*1089 FILLER_0_108_545
*1090 FILLER_0_108_557
*1091 FILLER_0_108_569
*1092 FILLER_0_108_581
*1093 FILLER_0_108_587
*1094 FILLER_0_108_589
*1095 FILLER_0_108_601
*1096 FILLER_0_108_613
*1097 FILLER_0_108_625
*1098 FILLER_0_108_637
*1099 FILLER_0_108_643
*1100 FILLER_0_108_645
*1101 FILLER_0_108_65
*1102 FILLER_0_108_657
*1103 FILLER_0_108_669
*1104 FILLER_0_108_681
*1105 FILLER_0_108_693
*1106 FILLER_0_108_699
*1107 FILLER_0_108_701
*1108 FILLER_0_108_713
*1109 FILLER_0_108_725
*1110 FILLER_0_108_737
*1111 FILLER_0_108_749
*1112 FILLER_0_108_755
*1113 FILLER_0_108_757
*1114 FILLER_0_108_769
*1115 FILLER_0_108_77
*1116 FILLER_0_108_781
*1117 FILLER_0_108_793
*1118 FILLER_0_108_805
*1119 FILLER_0_108_811
*1120 FILLER_0_108_813
*1121 FILLER_0_108_825
*1122 FILLER_0_108_83
*1123 FILLER_0_108_837
*1124 FILLER_0_108_849
*1125 FILLER_0_108_85
*1126 FILLER_0_108_861
*1127 FILLER_0_108_867
*1128 FILLER_0_108_869
*1129 FILLER_0_108_881
*1130 FILLER_0_108_893
*1131 FILLER_0_108_905
*1132 FILLER_0_108_917
*1133 FILLER_0_108_923
*1134 FILLER_0_108_925
*1135 FILLER_0_108_937
*1136 FILLER_0_108_949
*1137 FILLER_0_108_961
*1138 FILLER_0_108_97
*1139 FILLER_0_108_973
*1140 FILLER_0_108_979
*1141 FILLER_0_108_981
*1142 FILLER_0_108_993
*1143 FILLER_0_109_1001
*1144 FILLER_0_109_1007
*1145 FILLER_0_109_1009
*1146 FILLER_0_109_1021
*1147 FILLER_0_109_1033
*1148 FILLER_0_109_1045
*1149 FILLER_0_109_105
*1150 FILLER_0_109_1057
*1151 FILLER_0_109_111
*1152 FILLER_0_109_113
*1153 FILLER_0_109_125
*1154 FILLER_0_109_137
*1155 FILLER_0_109_149
*1156 FILLER_0_109_15
*1157 FILLER_0_109_161
*1158 FILLER_0_109_167
*1159 FILLER_0_109_169
*1160 FILLER_0_109_181
*1161 FILLER_0_109_193
*1162 FILLER_0_109_205
*1163 FILLER_0_109_217
*1164 FILLER_0_109_223
*1165 FILLER_0_109_225
*1166 FILLER_0_109_237
*1167 FILLER_0_109_249
*1168 FILLER_0_109_261
*1169 FILLER_0_109_27
*1170 FILLER_0_109_273
*1171 FILLER_0_109_279
*1172 FILLER_0_109_281
*1173 FILLER_0_109_293
*1174 FILLER_0_109_3
*1175 FILLER_0_109_305
*1176 FILLER_0_109_317
*1177 FILLER_0_109_329
*1178 FILLER_0_109_335
*1179 FILLER_0_109_337
*1180 FILLER_0_109_349
*1181 FILLER_0_109_361
*1182 FILLER_0_109_373
*1183 FILLER_0_109_385
*1184 FILLER_0_109_39
*1185 FILLER_0_109_391
*1186 FILLER_0_109_393
*1187 FILLER_0_109_405
*1188 FILLER_0_109_417
*1189 FILLER_0_109_429
*1190 FILLER_0_109_441
*1191 FILLER_0_109_447
*1192 FILLER_0_109_449
*1193 FILLER_0_109_461
*1194 FILLER_0_109_473
*1195 FILLER_0_109_485
*1196 FILLER_0_109_497
*1197 FILLER_0_109_503
*1198 FILLER_0_109_505
*1199 FILLER_0_109_51
*1200 FILLER_0_109_517
*1201 FILLER_0_109_529
*1202 FILLER_0_109_541
*1203 FILLER_0_109_55
*1204 FILLER_0_109_553
*1205 FILLER_0_109_559
*1206 FILLER_0_109_561
*1207 FILLER_0_109_57
*1208 FILLER_0_109_573
*1209 FILLER_0_109_585
*1210 FILLER_0_109_597
*1211 FILLER_0_109_609
*1212 FILLER_0_109_615
*1213 FILLER_0_109_617
*1214 FILLER_0_109_629
*1215 FILLER_0_109_641
*1216 FILLER_0_109_653
*1217 FILLER_0_109_665
*1218 FILLER_0_109_671
*1219 FILLER_0_109_673
*1220 FILLER_0_109_685
*1221 FILLER_0_109_69
*1222 FILLER_0_109_697
*1223 FILLER_0_109_709
*1224 FILLER_0_109_721
*1225 FILLER_0_109_727
*1226 FILLER_0_109_729
*1227 FILLER_0_109_741
*1228 FILLER_0_109_753
*1229 FILLER_0_109_765
*1230 FILLER_0_109_777
*1231 FILLER_0_109_783
*1232 FILLER_0_109_785
*1233 FILLER_0_109_797
*1234 FILLER_0_109_809
*1235 FILLER_0_109_81
*1236 FILLER_0_109_821
*1237 FILLER_0_109_833
*1238 FILLER_0_109_839
*1239 FILLER_0_109_841
*1240 FILLER_0_109_853
*1241 FILLER_0_109_865
*1242 FILLER_0_109_877
*1243 FILLER_0_109_889
*1244 FILLER_0_109_895
*1245 FILLER_0_109_897
*1246 FILLER_0_109_909
*1247 FILLER_0_109_921
*1248 FILLER_0_109_93
*1249 FILLER_0_109_933
*1250 FILLER_0_109_945
*1251 FILLER_0_109_951
*1252 FILLER_0_109_953
*1253 FILLER_0_109_965
*1254 FILLER_0_109_977
*1255 FILLER_0_109_989
*1256 FILLER_0_10_1005
*1257 FILLER_0_10_1017
*1258 FILLER_0_10_1029
*1259 FILLER_0_10_1035
*1260 FILLER_0_10_1037
*1261 FILLER_0_10_1049
*1262 FILLER_0_10_1057
*1263 FILLER_0_10_109
*1264 FILLER_0_10_121
*1265 FILLER_0_10_133
*1266 FILLER_0_10_139
*1267 FILLER_0_10_141
*1268 FILLER_0_10_15
*1269 FILLER_0_10_153
*1270 FILLER_0_10_165
*1271 FILLER_0_10_177
*1272 FILLER_0_10_189
*1273 FILLER_0_10_195
*1274 FILLER_0_10_197
*1275 FILLER_0_10_209
*1276 FILLER_0_10_221
*1277 FILLER_0_10_233
*1278 FILLER_0_10_245
*1279 FILLER_0_10_251
*1280 FILLER_0_10_253
*1281 FILLER_0_10_265
*1282 FILLER_0_10_27
*1283 FILLER_0_10_277
*1284 FILLER_0_10_289
*1285 FILLER_0_10_29
*1286 FILLER_0_10_3
*1287 FILLER_0_10_301
*1288 FILLER_0_10_307
*1289 FILLER_0_10_309
*1290 FILLER_0_10_321
*1291 FILLER_0_10_333
*1292 FILLER_0_10_345
*1293 FILLER_0_10_357
*1294 FILLER_0_10_363
*1295 FILLER_0_10_365
*1296 FILLER_0_10_377
*1297 FILLER_0_10_389
*1298 FILLER_0_10_401
*1299 FILLER_0_10_41
*1300 FILLER_0_10_413
*1301 FILLER_0_10_419
*1302 FILLER_0_10_421
*1303 FILLER_0_10_433
*1304 FILLER_0_10_445
*1305 FILLER_0_10_457
*1306 FILLER_0_10_469
*1307 FILLER_0_10_475
*1308 FILLER_0_10_477
*1309 FILLER_0_10_489
*1310 FILLER_0_10_501
*1311 FILLER_0_10_513
*1312 FILLER_0_10_525
*1313 FILLER_0_10_53
*1314 FILLER_0_10_531
*1315 FILLER_0_10_533
*1316 FILLER_0_10_545
*1317 FILLER_0_10_557
*1318 FILLER_0_10_569
*1319 FILLER_0_10_581
*1320 FILLER_0_10_587
*1321 FILLER_0_10_589
*1322 FILLER_0_10_601
*1323 FILLER_0_10_613
*1324 FILLER_0_10_625
*1325 FILLER_0_10_637
*1326 FILLER_0_10_643
*1327 FILLER_0_10_645
*1328 FILLER_0_10_65
*1329 FILLER_0_10_657
*1330 FILLER_0_10_669
*1331 FILLER_0_10_681
*1332 FILLER_0_10_693
*1333 FILLER_0_10_699
*1334 FILLER_0_10_701
*1335 FILLER_0_10_713
*1336 FILLER_0_10_725
*1337 FILLER_0_10_737
*1338 FILLER_0_10_749
*1339 FILLER_0_10_755
*1340 FILLER_0_10_757
*1341 FILLER_0_10_769
*1342 FILLER_0_10_77
*1343 FILLER_0_10_781
*1344 FILLER_0_10_793
*1345 FILLER_0_10_805
*1346 FILLER_0_10_811
*1347 FILLER_0_10_813
*1348 FILLER_0_10_825
*1349 FILLER_0_10_83
*1350 FILLER_0_10_837
*1351 FILLER_0_10_849
*1352 FILLER_0_10_85
*1353 FILLER_0_10_861
*1354 FILLER_0_10_867
*1355 FILLER_0_10_869
*1356 FILLER_0_10_881
*1357 FILLER_0_10_893
*1358 FILLER_0_10_905
*1359 FILLER_0_10_917
*1360 FILLER_0_10_923
*1361 FILLER_0_10_925